-------------------------------------------------------
          Amber 24 SANDER                              2024
          -------------------------------------------------------

  [-O]verwriting output

File Assignments:

 Here is the input file:

  single point calc.
 &cntrl
   imin=0, nstlim=1000000,
   irest=1, ntx=5,
   ntt=1, temp0=300,
   ntb=1,
   ntp=0,
   ntc=2, ntf=2, tol=0.000001,
   cut=9.,
   ntpr=1000, ntwr=1000, ntwx=1000,
   dt=0.001,
   ipgm=1,ips=1,
 /
 &ewald
  skinnb=2.,ew_coeff=0.4,nfft1=50,nfft2=50,nfft3=50,order=8,vdwmeth=0
 /
 &pol_gauss
   pol_gauss_verbose=0,ee_dsum_cut=8.0,pol_gauss_ips=1,
   dipole_scf_tol=0.0001,dipole_scf_init=3,dipole_scf_init_order=3,dipole_scf_init_step=2,
   scf_solv_opt=3,scf_sor_niter=100,scf_sor_coefficient=0.65,
   scf_cg_niter=50,scf_local_niter=3,scf_local_cut=4.0
 /

--------------------------------------------------------------------------------
   1.  RESOURCE   USE:
--------------------------------------------------------------------------------

 getting box info from netcdf restart file
 NATOM  =    1536 NTYPES =       2 NBONH =    1536 MBONA  =       0
 NTHETH =       0 MTHETA =       0 NPHIH =       0 MPHIA  =       0
 NHPARM =       0 NPARM  =       0 NNB   =    2048 NRES   =     512
 NBONA  =       0 NTHETA =       0 NPHIA =       0 NUMBND =       2
 NUMANG =       0 NPTRA  =       0 NATYP =       2 NPHB   =       0
 IFBOX  =       2 NMXRS  =       3 IFCAP =       0 NEXTRA =       0
 NCOPY  =       0

     BOX TYPE: TRUNCATED OCTAHEDRON

--------------------------------------------------------------------------------
   2.  CONTROL  DATA  FOR  THE  RUN
--------------------------------------------------------------------------------

TP3

General flags:
     imin    =       0, nmropt  =       0

Nature and format of input:
     ntx     =       5, irest   =       1, ntrx    =       1

Nature and format of output:
     ntxo    =       2, ntpr    =    1000, ntrx    =       1, ntwr    =    1000
     iwrap   =       0, ntwx    =    1000, ntwv    =       0, ntwe    =       0
     ioutfm  =       1, ntwprt  =       0, idecomp =       0, rbornstat=      0

Potential function:
     ntf     =       2, ntb     =       1, igb     =       0, nsnb    =      25
     ipol    =       0, gbsa    =       0, iesp    =       0
     dielc   =   1.00000, cut     =   9.00000, intdiel =   1.00000

Frozen or restrained atoms:
     ibelly  =       0, ntr     =       0

Molecular dynamics:
     nstlim  =   1000000, nscm    =      1000, nrespa  =         1
     t       =   0.00000, dt      =   0.00100, vlimit  =  20.00000

Berendsen (weak-coupling) temperature regulation:
     temp0   = 300.00000, tempi   =   0.00000, tautp   =   1.00000

SHAKE:
     ntc     =       2, jfastw  =       0
     tol     =   0.00000

Ewald parameters:
     verbose =       0, ew_type =       0, nbflag  =       1, use_pme =       0
     vdwmeth =       2, eedmeth =       6, netfrc  =       1
     Box X =   26.967   Box Y =   26.967   Box Z =   26.967
     Alpha =  109.471   Beta  =  109.471   Gamma =  109.471
     NFFT1 =   50       NFFT2 =   50       NFFT3 =   50
     Cutoff=    9.000   Tol   =0.395E-07
     Ewald Coefficient =  0.40000
     Interpolation order =    8

--------------------------------------------------------------------------------
   3.  ATOMIC COORDINATES AND VELOCITIES
--------------------------------------------------------------------------------

TP3
 begin time read from input coords =  4706.000 ps

 Number of triangulated 3-point waters found:      512

     Sum of charges from parm topology file =   0.00000000
     Forcing neutrality...

 ----------------------------------
 Using 3D-IPS algorithm
   IPS Radius:   9.00 A
   Using IPS for electrostatic energy
   Using IPS for L-J energy
 ----------------------------------

--------------------------------------------------------------------------------
   4.  RESULTS
 NSTEP =     1000   TIME(PS) =    4707.000  TEMP(K) =   253.53  PRESS =     0.0
 Etot   =   -504316.7517  EKtot   =       773.1122  EPtot      =   -505089.8639
 BOND   =         0.0000  ANGLE   =         0.0000  DIHED      =         0.0000
 1-4 NB =         0.0000  1-4 EEL =         0.0000  VDWAALS    =       903.7117
 EELEC  =   -505993.5755  EHBOND  =         0.0000  RESTRAINT  =         0.0000
 ------------------------------------------------------------------------------

      A V E R A G E S   O V E R 1000000 S T E P S

 NSTEP =  1000000   TIME(PS) =    5706.000  TEMP(K) =   299.81  PRESS =     0.0
 Etot   =   -503923.5920  EKtot   =       914.2211  EPtot      =   -504837.8131
 BOND   =         0.0000  ANGLE   =         0.0000  DIHED      =         0.0000
 1-4 NB =         0.0000  1-4 EEL =         0.0000  VDWAALS    =       844.0240
 EELEC  =   -505681.8371  EHBOND  =         0.0000  RESTRAINT  =         0.0000
 ------------------------------------------------------------------------------

      R M S  F L U C T U A T I O N S

 NSTEP =  1000000   TIME(PS) =    5706.000  TEMP(K) =     6.89  PRESS =     0.0
 Etot   =        26.6113  EKtot   =        20.9966  EPtot      =        28.5186
 BOND   =         0.0000  ANGLE   =         0.0000  DIHED      =         0.0000
 1-4 NB =         0.0000  1-4 EEL =         0.0000  VDWAALS    =        34.9655
 EELEC  =        50.9280  EHBOND  =         0.0000  RESTRAINT  =         0.0000
 ------------------------------------------------------------------------------
